7

C          -0.12888312425142   -0.00640246259879   -0.00997057133406
H           1.44011699709596    0.12229812355524   -0.02854203428735
H          -0.41612454870604    1.02694842152161   -0.04938812535015
H          -0.26306601703832   -0.58286887757121   -0.90445094952445
H          -0.26440375738028   -0.51708010658031    0.92386857306799
O           2.45008586500521    0.26032015001761    0.01133571198248
H           2.61210033905108    0.98358191645276    0.62026402303033
